test/TEST190523/v_h27.csv
Bus, BasekV, Node1, Magnitude1, Angle1, pu1, Node2, Magnitude2, Angle2, pu2, Node3, Magnitude3, Angle3, pu3
"SOURCEBUS", 69, 1,    41835.8,   -0.1,    1.0502, 2,      41827, -120.2,    1.0499, 3,    41811.5,  119.9,    1.0496
"BUSMVMAI1", 12.8, 1,    7764.31,  -30.4,    1.0506, 2,    7766.34, -150.5,    1.0509, 3,     7753.9,   89.4,    1.0492
"BUSMVMAI136", 12.505, 1,    7764.31,  -30.4,    1.0754, 2,    7766.31, -150.5,    1.0757, 3,    7753.86,   89.4,    1.0739
"BUSMVMAI3", 12.505, 1,     7763.5,  -30.8,    1.0753, 2,    7743.09, -150.8,    1.0725, 3,    7723.82,   88.8,    1.0698
"BUSMVMAI2", 12.505, 1,     7763.5,  -30.8,    1.0753, 2,    7743.03, -150.8,    1.0724, 3,    7723.74,   88.8,    1.0698
"BUSMVMAI4", 12.505, 1,    7763.48,  -30.8,    1.0753, 2,    7742.37, -150.8,    1.0724, 3,     7722.9,   88.8,    1.0697
"BUSMVMAI46", 12.505, 1,     7763.5,  -30.8,    1.0753, 2,    7743.12, -150.8,    1.0725, 3,    7723.86,   88.8,    1.0698
"BUSMVMAI5", 12.505, 1,    7763.21,  -30.8,    1.0752, 2,    7741.52, -150.8,    1.0722, 3,    7721.87,   88.8,    1.0695
"BUSMVMAI862", 12.505, 1,    7763.48,  -30.8,    1.0753, 0, 0, 0, 0, 0, 0, 0, 0
"BUSMVMAI6", 12.505, 1,    7763.16,  -30.8,    1.0752, 2,    7741.37, -150.8,    1.0722, 3,    7721.68,   88.8,    1.0695
"BUSMVMAI859", 12.505, 3,    7721.85,   88.8,    1.0695, 0, 0, 0, 0, 0, 0, 0, 0
"BUSMVMAI860", 12.505, 3,    7721.87,   88.8,    1.0695, 0, 0, 0, 0, 0, 0, 0, 0
"BUSMVMAI7", 12.505, 1,    7762.75,  -30.8,    1.0752, 2,    7740.64, -150.8,    1.0721, 3,    7720.81,   88.8,    1.0694
"BUSMVMAI8", 12.505, 1,       7763,  -30.8,    1.0752, 2,     7739.5, -150.8,     1.072, 3,    7720.23,   88.8,    1.0693
"BUSMVMAI9", 12.505, 1,    7762.75,  -30.8,    1.0752, 2,    7740.65, -150.8,    1.0721, 3,    7720.81,   88.8,    1.0694
"BUSMVMAI10", 12.505, 1,    7762.41,  -30.8,    1.0751, 2,    7740.66, -150.8,    1.0721, 3,    7720.55,   88.8,    1.0693
"BUSMVMAI56", 12.505, 1,    7762.58,  -30.8,    1.0751, 2,    7740.65, -150.8,    1.0721, 3,    7720.68,   88.8,    1.0693
"BUSMVMAI861", 12.505, 3,     7721.8,   88.8,    1.0695, 0, 0, 0, 0, 0, 0, 0, 0
"BUSMVMAI12", 12.505, 1,    7763.21,  -30.8,    1.0752, 2,    7738.57, -150.8,    1.0718, 3,    7719.75,   88.8,    1.0692
"BUSMVMAI51", 12.505, 1,       7763,  -30.8,    1.0752, 2,     7739.5, -150.8,     1.072, 3,    7720.23,   88.8,    1.0693
"BUSMVMAI2171", 12.505, 1,       7763,  -30.8,    1.0752, 0, 0, 0, 0, 0, 0, 0, 0
"BUSMVMAI863", 12.505, 3,    7721.77,   88.8,    1.0695, 0, 0, 0, 0, 0, 0, 0, 0
"BUSMVMAI2165", 12.505, 3,    7720.81,   88.8,    1.0694, 0, 0, 0, 0, 0, 0, 0, 0
"BUSMVMAI694", 12.505, 1,    7762.75,  -30.8,    1.0752, 2,    7740.65, -150.8,    1.0721, 3,    7720.81,   88.8,    1.0694
"BUSMVMAI122", 12.505, 1,    7762.39,  -30.8,    1.0751, 2,    7740.66, -150.8,    1.0721, 3,    7720.54,   88.8,    1.0693
"BUSMVMAI11", 12.505, 1,    7763.21,  -30.8,    1.0752, 2,    7738.57, -150.8,    1.0718, 3,    7719.75,   88.8,    1.0692
"BUSMVMAI13", 12.505, 1,    7763.21,  -30.8,    1.0752, 2,    7738.56, -150.8,    1.0718, 3,    7719.75,   88.8,    1.0692
"BUSMVMAI18", 12.505, 1,    7763.29,  -30.8,    1.0752, 2,    7738.24, -150.8,    1.0718, 3,    7719.56,   88.8,    1.0692
"BUSMVMAI14", 12.505, 1,    7763.21,  -30.8,    1.0752, 2,    7738.53, -150.8,    1.0718, 3,    7719.76,   88.8,    1.0692
"BUSMVMAI15", 12.505, 1,    7763.21,  -30.8,    1.0752, 2,    7738.49, -150.8,    1.0718, 3,    7719.77,   88.8,    1.0692
"BUSMVMAI16", 12.505, 1,    7763.21,  -30.8,    1.0752, 2,    7738.49, -150.8,    1.0718, 3,    7719.76,   88.8,    1.0692
"BUSMVMAI2166", 12.505, 2,    7738.49, -150.8,    1.0718, 0, 0, 0, 0, 0, 0, 0, 0
"BUSMVMAI2172", 12.505, 1,    7763.47,  -30.8,    1.0753, 0, 0, 0, 0, 0, 0, 0, 0
"BUSMVMAI864", 12.505, 3,    7721.74,   88.8,    1.0695, 0, 0, 0, 0, 0, 0, 0, 0
"BUSMVMAI865", 12.505, 3,     7721.7,   88.8,    1.0695, 0, 0, 0, 0, 0, 0, 0, 0
"BUSMVMAI17", 12.505, 1,    7763.21,  -30.8,    1.0752, 2,    7738.49, -150.8,    1.0718, 3,    7719.76,   88.8,    1.0692
"BUSMVMAI695", 12.505, 1,    7763.21,  -30.8,    1.0752, 2,    7738.49, -150.8,    1.0718, 3,    7719.76,   88.8,    1.0692
"BUSMVMAI866", 12.505, 3,     7721.7,   88.8,    1.0695, 0, 0, 0, 0, 0, 0, 0, 0
"BUSMVMAI2176", 12.505, 3,     7721.7,   88.8,    1.0695, 0, 0, 0, 0, 0, 0, 0, 0
"BUSMVMAI2177", 12.505, 3,     7721.7,   88.8,    1.0695, 0, 0, 0, 0, 0, 0, 0, 0
"BUSMVMAI2178", 12.505, 3,    7721.68,   88.8,    1.0695, 0, 0, 0, 0, 0, 0, 0, 0
"BUSMVMAI19", 12.505, 1,    7763.45,  -30.8,    1.0753, 2,    7737.62, -150.8,    1.0717, 3,    7719.24,   88.8,    1.0691
"BUSMVMAI20", 12.505, 1,    7763.67,  -30.8,    1.0753, 2,    7736.75, -150.8,    1.0716, 3,    7718.78,   88.7,    1.0691
"BUSMVMAI53", 12.505, 1,    7763.45,  -30.8,    1.0753, 2,    7737.62, -150.8,    1.0717, 3,    7719.24,   88.8,    1.0691
"BUSMVMAI21", 12.505, 1,     7763.9,  -30.8,    1.0753, 2,    7735.84, -150.8,    1.0714, 3,     7718.3,   88.7,     1.069
"BUSMVMAI22", 12.505, 1,    7764.17,  -30.8,    1.0754, 2,    7734.76, -150.8,    1.0713, 3,    7717.74,   88.7,    1.0689
"BUSMVMAI23", 12.505, 1,     7763.9,  -30.8,    1.0753, 2,    7735.84, -150.8,    1.0714, 3,    7718.29,   88.7,     1.069
"BUSMVMAI25", 12.505, 1,    7764.44,  -30.8,    1.0754, 2,    7733.66, -150.8,    1.0711, 3,    7717.18,   88.7,    1.0689
"BUSMVMAI52", 12.505, 1,    7764.17,  -30.8,    1.0754, 2,    7734.76, -150.8,    1.0713, 3,    7717.74,   88.7,    1.0689
"BUSMVMAI54", 12.505, 1,    7764.17,  -30.8,    1.0754, 2,    7734.76, -150.8,    1.0713, 3,    7717.74,   88.7,    1.0689
"BUSMVMAI55", 12.505, 1,    7764.17,  -30.8,    1.0754, 2,    7734.76, -150.8,    1.0713, 3,    7717.74,   88.7,    1.0689
"BUSMVMAI696", 12.505, 1,     7763.9,  -30.8,    1.0753, 2,    7735.84, -150.8,    1.0714, 3,    7718.29,   88.7,     1.069
"BUSMVMAI24", 12.505, 1,    7764.47,  -30.8,    1.0754, 2,    7733.55, -150.8,    1.0711, 3,    7717.12,   88.7,    1.0689
"BUSMVMAI26", 12.505, 1,    7764.74,  -30.8,    1.0754, 2,    7732.45, -150.8,     1.071, 3,    7716.56,   88.7,    1.0688
"BUSMVMAI49", 12.505, 1,    7764.44,  -30.8,    1.0754, 2,    7733.66, -150.8,    1.0711, 3,    7717.18,   88.7,    1.0689
"BUSMVMAI50", 12.505, 1,    7764.44,  -30.8,    1.0754, 2,    7733.66, -150.8,    1.0711, 3,    7717.17,   88.7,    1.0689
"BUSMVMAI27", 12.505, 1,    7764.73,  -30.8,    1.0754, 2,    7732.45, -150.8,     1.071, 3,    7716.56,   88.7,    1.0688
"BUSMVMAI28", 12.505, 1,    7764.95,  -30.8,    1.0755, 2,     7731.6, -150.8,    1.0709, 3,    7716.14,   88.7,    1.0687
"BUSMVMAI29", 12.505, 1,    7764.72,  -30.8,    1.0754, 2,    7732.46, -150.8,     1.071, 3,    7716.55,   88.7,    1.0688
"BUSMVMAI31", 12.505, 1,    7765.19,  -30.8,    1.0755, 2,    7730.62, -150.8,    1.0707, 3,    7715.66,   88.7,    1.0687
"BUSMVMAI30", 12.505, 1,    7764.71,  -30.8,    1.0754, 2,    7732.46, -150.8,     1.071, 3,    7716.54,   88.7,    1.0688
"BUSMVMAI34", 12.505, 1,    7764.71,  -30.8,    1.0754, 2,    7732.47, -150.8,     1.071, 3,    7716.54,   88.7,    1.0688
"BUSMVMAI867", 12.505, 1,    7765.17,  -30.8,    1.0755, 0, 0, 0, 0, 0, 0, 0, 0
"BUSMVMAI43", 12.505, 1,     7765.2,  -30.8,    1.0755, 2,    7730.59, -150.8,    1.0707, 3,    7715.64,   88.7,    1.0686
"BUSMVMAI871", 12.505, 2,    7730.62, -150.8,    1.0707, 0, 0, 0, 0, 0, 0, 0, 0
"BUSMVMAI33", 12.505, 1,    7765.27,  -30.8,    1.0755, 2,    7730.31, -150.8,    1.0707, 3,    7715.51,   88.6,    1.0686
"BUSMVMAI32", 12.505, 1,     7765.5,  -30.8,    1.0756, 2,    7729.46, -150.8,    1.0706, 3,     7715.1,   88.6,    1.0686
"BUSMVMAI37", 12.505, 1,    7765.79,  -30.8,    1.0756, 2,     7728.3, -150.9,    1.0704, 3,    7714.56,   88.6,    1.0685
"BUSMVMAI44", 12.505, 1,    7765.21,  -30.8,    1.0755, 2,    7730.57, -150.8,    1.0707, 3,    7715.63,   88.7,    1.0686
"BUSMVMAI35", 12.505, 1,    7764.71,  -30.8,    1.0754, 2,    7732.47, -150.8,     1.071, 3,    7716.53,   88.7,    1.0688
"BUSMVMAI36", 12.505, 1,    7764.71,  -30.8,    1.0754, 2,    7732.47, -150.8,     1.071, 3,    7716.53,   88.7,    1.0688
"BUSMVMAI869", 12.505, 1,    7765.16,  -30.8,    1.0755, 0, 0, 0, 0, 0, 0, 0, 0
"BUSMVMAI38", 12.505, 1,    7766.03,  -30.8,    1.0756, 2,    7727.38, -150.9,    1.0703, 3,    7714.13,   88.6,    1.0684
"BUSMVMAI2181", 12.505, 1,    7765.78,  -30.8,    1.0756, 0, 0, 0, 0, 0, 0, 0, 0
"BUSMVMAI868", 12.505, 1,    7765.12,  -30.8,    1.0755, 0, 0, 0, 0, 0, 0, 0, 0
"BUSMVMAI870", 12.505, 1,    7765.07,  -30.8,    1.0755, 0, 0, 0, 0, 0, 0, 0, 0
"BUSMVMAI39", 12.505, 1,    7766.04,  -30.8,    1.0756, 2,    7727.37, -150.9,    1.0703, 3,    7714.11,   88.6,    1.0684
"BUSMVMAI40", 12.505, 1,    7766.24,  -30.9,    1.0757, 2,    7726.48, -150.9,    1.0701, 3,    7713.74,   88.6,    1.0684
"BUSMVMAI697", 12.505, 1,    7766.06,  -30.8,    1.0756, 2,    7727.38, -150.9,    1.0703, 3,    7714.02,   88.6,    1.0684
"BUSMVMAI41", 12.505, 1,    7766.49,  -30.9,    1.0757, 2,    7725.44, -150.9,      1.07, 3,    7713.27,   88.6,    1.0683
"BUSMVMAI42", 12.505, 1,     7766.5,  -30.9,    1.0757, 2,    7725.43, -150.9,      1.07, 3,    7713.26,   88.6,    1.0683
"BUSMVMAI48", 12.505, 1,    7766.69,  -30.9,    1.0757, 2,    7724.58, -150.9,    1.0699, 3,     7712.9,   88.6,    1.0683
"BUSMVMAI303", 12.505, 1,    7766.59,  -30.9,    1.0757, 2,    7725.01, -150.9,    1.0699, 3,    7713.09,   88.6,    1.0683
"BUSMVMAI45", 12.505, 1,     7766.5,  -30.9,    1.0757, 2,    7725.43, -150.9,      1.07, 3,    7713.25,   88.6,    1.0683
"BUSMVMAI701", 12.505, 1,     7766.5,  -30.9,    1.0757, 2,    7725.43, -150.9,      1.07, 3,    7713.24,   88.6,    1.0683
"BUSMVMAI47", 12.505, 1,    7763.51,  -30.8,    1.0753, 2,    7743.41, -150.8,    1.0725, 3,    7724.23,   88.8,    1.0698
"BUSMVMAI179", 12.505, 1,    7763.51,  -30.8,    1.0753, 2,    7743.27, -150.8,    1.0725, 3,    7724.04,   88.8,    1.0698
"BUSMVMAI160", 12.505, 1,    7763.53,  -30.8,    1.0753, 2,     7744.1, -150.8,    1.0726, 3,    7725.11,   88.9,      1.07
"BUSMVMAI1103", 12.505, 1,    7766.65,  -30.9,    1.0757, 0, 0, 0, 0, 0, 0, 0, 0
"BUSMVMAI259", 12.505, 1,     7766.8,  -30.9,    1.0757, 2,    7724.13, -150.9,    1.0698, 3,    7712.73,   88.6,    1.0682
"BUSMVMAI304", 12.505, 1,    7766.69,  -30.9,    1.0757, 2,    7724.58, -150.9,    1.0699, 3,     7712.9,   88.6,    1.0683
"BUSMVMAI702", 12.505, 1,    7764.44,  -30.8,    1.0754, 2,    7733.66, -150.8,    1.0711, 3,    7717.17,   88.7,    1.0689
"BUSMVMAI58", 12.505, 1,    7762.18,  -30.8,    1.0751, 2,    7740.67, -150.8,    1.0721, 3,    7720.37,   88.8,    1.0693
"BUSMVMAI57", 12.505, 1,    7761.39,  -30.8,     1.075, 2,    7740.71, -150.8,    1.0721, 3,    7719.75,   88.8,    1.0692
"BUSMVMAI60", 12.505, 1,    7761.05,  -30.8,    1.0749, 2,    7740.72, -150.8,    1.0721, 3,     7719.5,   88.8,    1.0692
"BUSMVMAI703", 12.505, 1,    7761.39,  -30.8,     1.075, 2,    7740.71, -150.8,    1.0721, 3,    7719.74,   88.8,    1.0692
"BUSMVMAI123", 12.505, 1,    7762.37,  -30.8,    1.0751, 2,    7740.66, -150.8,    1.0721, 3,    7720.52,   88.8,    1.0693
"BUSMVMAI59", 12.505, 1,    7760.58,  -30.8,    1.0749, 2,    7740.76, -150.8,    1.0721, 3,    7719.22,   88.8,    1.0691
"BUSMVMAI61", 12.505, 1,     7759.8,  -30.8,    1.0748, 2,    7740.82, -150.8,    1.0721, 3,    7718.76,   88.8,    1.0691
"BUSMVMAI63", 12.505, 1,    7761.07,  -30.8,    1.0749, 2,    7740.71, -150.8,    1.0721, 3,    7719.46,   88.8,    1.0692
"BUSMVMAI874", 12.505, 3,     7719.5,   88.8,    1.0692, 0, 0, 0, 0, 0, 0, 0, 0
"BUSMVMAI62", 12.505, 1,    7759.02,  -30.8,    1.0747, 2,    7740.86, -150.8,    1.0721, 3,    7718.29,   88.8,     1.069
"BUSMVMAI64", 12.505, 1,    7758.17,  -30.8,    1.0745, 2,    7740.93, -150.8,    1.0722, 3,    7717.94,   88.8,     1.069
"BUSMVMAI942", 12.505, 3,    7718.29,   88.8,     1.069, 0, 0, 0, 0, 0, 0, 0, 0
"BUSMVMAI873", 12.505, 3,    7718.28,   88.8,     1.069, 0, 0, 0, 0, 0, 0, 0, 0
"BUSMVMAI872", 12.505, 3,    7718.11,   88.8,     1.069, 0, 0, 0, 0, 0, 0, 0, 0
"BUSMVMAI880", 12.505, 3,     7718.1,   88.8,     1.069, 0, 0, 0, 0, 0, 0, 0, 0
"BUSMVMAI945", 12.505, 3,    7719.46,   88.8,    1.0692, 0, 0, 0, 0, 0, 0, 0, 0
"BUSMVMAI65", 12.505, 1,    7757.28,  -30.9,    1.0744, 2,    7740.96, -150.8,    1.0722, 3,    7717.56,   88.8,    1.0689
"BUSMVMAI66", 12.505, 1,    7756.38,  -30.9,    1.0743, 2,       7741, -150.8,    1.0722, 3,    7717.17,   88.8,    1.0689
"BUSMVMAI67", 12.505, 1,    7755.41,  -30.9,    1.0742, 2,    7741.04, -150.8,    1.0722, 3,    7716.76,   88.8,    1.0688
"BUSMVMAI878", 12.505, 1,    7755.35,  -30.9,    1.0741, 0, 0, 0, 0, 0, 0, 0, 0
"BUSMVMAI68", 12.505, 1,    7754.69,  -30.9,    1.0741, 2,    7741.04, -150.8,    1.0722, 3,    7716.45,   88.8,    1.0688
"BUSMVMAI706", 12.505, 1,    7755.41,  -30.9,    1.0742, 2,    7741.04, -150.8,    1.0722, 3,    7716.75,   88.8,    1.0688
"BUSMVMAI876", 12.505, 3,    7719.45,   88.8,    1.0692, 0, 0, 0, 0, 0, 0, 0, 0
"BUSMVMAI875", 12.505, 3,    7719.32,   88.8,    1.0692, 0, 0, 0, 0, 0, 0, 0, 0
"BUSMVMAI877", 12.505, 3,    7719.28,   88.8,    1.0692, 0, 0, 0, 0, 0, 0, 0, 0
"BUSMVMAI883", 12.505, 3,    7719.19,   88.8,    1.0691, 0, 0, 0, 0, 0, 0, 0, 0
"BUSMVMAI884", 12.505, 3,    7719.27,   88.8,    1.0692, 0, 0, 0, 0, 0, 0, 0, 0
"BUSMVMAI886", 12.505, 3,    7719.28,   88.8,    1.0692, 0, 0, 0, 0, 0, 0, 0, 0
"BUSMVMAI885", 12.505, 1,    7755.28,  -30.9,    1.0741, 0, 0, 0, 0, 0, 0, 0, 0
"BUSMVMAI879", 12.505, 3,    7717.86,   88.8,     1.069, 0, 0, 0, 0, 0, 0, 0, 0
"BUSMVMAI881", 12.505, 3,    7717.82,   88.8,     1.069, 0, 0, 0, 0, 0, 0, 0, 0
"BUSMVMAI888", 12.505, 3,    7717.81,   88.8,    1.0689, 0, 0, 0, 0, 0, 0, 0, 0
"BUSMVMAI882", 12.505, 3,     7717.8,   88.8,    1.0689, 0, 0, 0, 0, 0, 0, 0, 0
"BUSMVMAI944", 12.505, 3,     7717.8,   88.8,    1.0689, 0, 0, 0, 0, 0, 0, 0, 0
"BUSMVMAI889", 12.505, 3,     7719.1,   88.8,    1.0691, 0, 0, 0, 0, 0, 0, 0, 0
"BUSMVMAI2183", 12.505, 3,    7719.27,   88.8,    1.0692, 0, 0, 0, 0, 0, 0, 0, 0
"BUSMVMAI2184", 12.505, 3,    7719.27,   88.8,    1.0692, 0, 0, 0, 0, 0, 0, 0, 0
"BUSMVMAI71", 12.505, 1,       7754,  -30.9,     1.074, 2,    7741.04, -150.8,    1.0722, 3,    7716.14,   88.8,    1.0687
"BUSMVMAI2182", 12.505, 1,    7755.27,  -30.9,    1.0741, 0, 0, 0, 0, 0, 0, 0, 0
"BUSMVMAI2185", 12.505, 1,    7755.27,  -30.9,    1.0741, 0, 0, 0, 0, 0, 0, 0, 0
"BUSMVMAI2186", 12.505, 1,    7755.23,  -30.9,    1.0741, 0, 0, 0, 0, 0, 0, 0, 0
"BUSMVMAI887", 12.505, 3,    7719.26,   88.8,    1.0692, 0, 0, 0, 0, 0, 0, 0, 0
"BUSMVMAI892", 12.505, 3,    7719.26,   88.8,    1.0691, 0, 0, 0, 0, 0, 0, 0, 0
"BUSMVMAI897", 12.505, 3,    7717.76,   88.8,    1.0689, 0, 0, 0, 0, 0, 0, 0, 0
"BUSMVMAI890", 12.505, 3,    7719.03,   88.8,    1.0691, 0, 0, 0, 0, 0, 0, 0, 0
"BUSMVMAI891", 12.505, 3,    7718.99,   88.8,    1.0691, 0, 0, 0, 0, 0, 0, 0, 0
"BUSMVMAI896", 12.505, 3,    7718.97,   88.8,    1.0691, 0, 0, 0, 0, 0, 0, 0, 0
"BUSMVMAI893", 12.505, 3,    7719.25,   88.8,    1.0691, 0, 0, 0, 0, 0, 0, 0, 0
"BUSMVMAI894", 12.505, 3,    7719.24,   88.8,    1.0691, 0, 0, 0, 0, 0, 0, 0, 0
"BUSMVMAI895", 12.505, 3,    7719.24,   88.8,    1.0691, 0, 0, 0, 0, 0, 0, 0, 0
"BUSMVMAI898", 12.505, 3,    7719.23,   88.8,    1.0691, 0, 0, 0, 0, 0, 0, 0, 0
"BUSMVMAI70", 12.505, 1,    7755.41,  -30.9,    1.0742, 2,    7741.04, -150.8,    1.0722, 3,    7716.73,   88.8,    1.0688
"BUSMVMAI69", 12.505, 1,    7755.41,  -30.9,    1.0742, 2,    7741.04, -150.8,    1.0722, 3,    7716.73,   88.8,    1.0688
"BUSMVMAI708", 12.505, 1,    7755.41,  -30.9,    1.0742, 2,    7741.04, -150.8,    1.0722, 3,    7716.73,   88.8,    1.0688
"BUSMVMAI72", 12.505, 1,    7753.09,  -30.9,    1.0738, 2,    7741.03, -150.8,    1.0722, 3,    7715.75,   88.8,    1.0687
"BUSMVMAI73", 12.505, 1,    7752.22,  -30.9,    1.0737, 2,    7741.03, -150.8,    1.0722, 3,    7715.42,   88.8,    1.0686
"BUSMVMAI134", 12.505, 1,    7753.09,  -30.9,    1.0738, 2,    7741.03, -150.8,    1.0722, 3,    7715.75,   88.8,    1.0687
"BUSMVMAI900", 12.505, 3,    7717.72,   88.8,    1.0689, 0, 0, 0, 0, 0, 0, 0, 0
"BUSMVMAI904", 12.505, 3,    7719.23,   88.8,    1.0691, 0, 0, 0, 0, 0, 0, 0, 0
"BUSMVMAI75", 12.505, 1,     7751.8,  -30.9,    1.0737, 2,    7741.07, -150.8,    1.0722, 3,    7715.25,   88.8,    1.0686
"BUSMVMAI718", 12.505, 1,    7752.22,  -30.9,    1.0737, 2,    7741.03, -150.8,    1.0722, 3,    7715.42,   88.8,    1.0686
"BUSMVMAI899", 12.505, 3,    7717.71,   88.8,    1.0689, 0, 0, 0, 0, 0, 0, 0, 0
"BUSMVMAI902", 12.505, 3,    7717.69,   88.8,    1.0689, 0, 0, 0, 0, 0, 0, 0, 0
"BUSMVMAI901", 12.505, 3,    7717.67,   88.8,    1.0689, 0, 0, 0, 0, 0, 0, 0, 0
"BUSMVMAI903", 12.505, 3,    7717.64,   88.8,    1.0689, 0, 0, 0, 0, 0, 0, 0, 0
"BUSMVMAI905", 12.505, 3,    7717.61,   88.8,    1.0689, 0, 0, 0, 0, 0, 0, 0, 0
"BUSMVMAI907", 12.505, 3,    7717.64,   88.8,    1.0689, 0, 0, 0, 0, 0, 0, 0, 0
"BUSMVMAI906", 12.505, 3,    7717.61,   88.8,    1.0689, 0, 0, 0, 0, 0, 0, 0, 0
"BUSMVMAI946", 12.505, 3,    7717.61,   88.8,    1.0689, 0, 0, 0, 0, 0, 0, 0, 0
"BUSMVMAI74", 12.505, 1,     7751.8,  -30.9,    1.0737, 2,    7741.07, -150.8,    1.0722, 3,    7715.25,   88.8,    1.0686
"BUSMVMAI76", 12.505, 1,    7751.72,  -30.9,    1.0736, 2,    7741.13, -150.8,    1.0722, 3,    7715.22,   88.8,    1.0686
"BUSMVMAI77", 12.505, 1,    7751.55,  -30.9,    1.0736, 2,    7741.06, -150.8,    1.0722, 3,    7715.15,   88.8,    1.0686
"BUSMVMAI79", 12.505, 1,    7751.72,  -30.9,    1.0736, 2,    7741.13, -150.8,    1.0722, 3,    7715.21,   88.8,    1.0686
"BUSMVMAI81", 12.505, 1,    7751.54,  -30.9,    1.0736, 2,    7741.01, -150.8,    1.0722, 3,    7715.18,   88.8,    1.0686
"BUSMVMAI91", 12.505, 1,    7750.93,  -30.9,    1.0735, 2,    7741.08, -150.8,    1.0722, 3,    7714.88,   88.8,    1.0685
"BUSMVMAI78", 12.505, 1,    7751.58,  -30.9,    1.0736, 2,    7741.23, -150.8,    1.0722, 3,    7715.15,   88.8,    1.0686
"BUSMVMAI80", 12.505, 1,    7751.44,  -30.9,    1.0736, 2,    7741.33, -150.8,    1.0722, 3,    7715.08,   88.8,    1.0686
"BUSMVMAI908", 12.505, 1,    7751.37,  -30.9,    1.0736, 0, 0, 0, 0, 0, 0, 0, 0
"BUSMVMAI89", 12.505, 1,    7751.38,  -30.9,    1.0736, 2,    7741.37, -150.8,    1.0722, 3,    7715.04,   88.8,    1.0686
"BUSMVMAI949", 12.505, 3,    7717.64,   88.8,    1.0689, 0, 0, 0, 0, 0, 0, 0, 0
"BUSMVMAI82", 12.505, 1,    7751.52,  -30.9,    1.0736, 2,    7740.97, -150.8,    1.0722, 3,    7715.19,   88.8,    1.0686
"BUSMVMAI83", 12.505, 1,    7751.52,  -30.9,    1.0736, 2,    7740.96, -150.8,    1.0722, 3,    7715.19,   88.8,    1.0686
"BUSMVMAI86", 12.505, 1,    7751.52,  -30.9,    1.0736, 2,    7740.95, -150.8,    1.0722, 3,    7715.19,   88.8,    1.0686
"BUSMVMAI85", 12.505, 1,    7752.21,  -30.9,    1.0737, 2,    7740.97, -150.8,    1.0722, 3,     7715.4,   88.8,    1.0686
"BUSMVMAI84", 12.505, 1,    7752.17,  -30.9,    1.0737, 2,     7740.9, -150.8,    1.0721, 3,     7715.4,   88.8,    1.0686
"BUSMVMAI93", 12.505, 1,    7752.15,  -30.9,    1.0737, 2,    7740.87, -150.8,    1.0721, 3,     7715.4,   88.8,    1.0686
"BUSMVMAI2198", 12.505, 2,     7740.9, -150.8,    1.0721, 0, 0, 0, 0, 0, 0, 0, 0
"BUSMVMAI709", 12.505, 1,    7752.22,  -30.9,    1.0737, 2,    7741.03, -150.8,    1.0722, 3,    7715.42,   88.8,    1.0686
"BUSMVMAI88", 12.505, 1,    7751.53,  -30.9,    1.0736, 2,    7740.94, -150.8,    1.0722, 3,    7715.18,   88.8,    1.0686
"BUSMVMAI87", 12.505, 1,    7751.53,  -30.9,    1.0736, 2,    7740.93, -150.8,    1.0722, 3,    7715.18,   88.8,    1.0686
"BUSMVMAI99", 12.505, 1,    7751.53,  -30.9,    1.0736, 2,    7740.93, -150.8,    1.0722, 3,    7715.18,   88.8,    1.0686
"BUSMVMAI722", 12.505, 1,    7751.53,  -30.9,    1.0736, 2,    7740.93, -150.8,    1.0722, 3,    7715.18,   88.8,    1.0686
"BUSMVMAI909", 12.505, 1,     7751.3,  -30.9,    1.0736, 0, 0, 0, 0, 0, 0, 0, 0
"BUSMVMAI90", 12.505, 1,    7751.36,  -30.9,    1.0736, 2,    7741.39, -150.8,    1.0722, 3,    7715.01,   88.8,    1.0686
"BUSMVMAI102", 12.505, 1,    7751.32,  -30.9,    1.0736, 2,    7741.42, -150.8,    1.0722, 3,    7714.98,   88.8,    1.0686
"BUSMVMAI92", 12.505, 1,    7750.39,  -30.9,    1.0735, 2,     7741.1, -150.8,    1.0722, 3,    7714.65,   88.8,    1.0685
"BUSMVMAI132", 12.505, 1,    7750.93,  -30.9,    1.0735, 2,    7741.08, -150.8,    1.0722, 3,    7714.88,   88.8,    1.0685
"BUSMVMAI98", 12.505, 1,    7750.39,  -30.9,    1.0735, 2,     7741.1, -150.8,    1.0722, 3,    7714.64,   88.8,    1.0685
"BUSMVMAI100", 12.505, 1,     7749.7,  -30.9,    1.0734, 2,    7741.17, -150.8,    1.0722, 3,    7714.34,   88.8,    1.0685
"BUSMVMAI723", 12.505, 1,    7750.39,  -30.9,    1.0735, 2,     7741.1, -150.8,    1.0722, 3,    7714.65,   88.8,    1.0685
"BUSMVMAI96", 12.505, 1,    7752.13,  -30.9,    1.0737, 2,    7740.83, -150.8,    1.0721, 3,     7715.4,   88.8,    1.0686
"BUSMVMAI916", 12.505, 1,    7752.14,  -30.9,    1.0737, 0, 0, 0, 0, 0, 0, 0, 0
"BUSMVMAI95", 12.505, 1,    7750.39,  -30.9,    1.0735, 2,    7741.07, -150.8,    1.0722, 3,    7714.65,   88.8,    1.0685
"BUSMVMAI94", 12.505, 1,    7750.38,  -30.9,    1.0735, 2,    7741.04, -150.8,    1.0722, 3,    7714.65,   88.8,    1.0685
"BUSMVMAI112", 12.505, 1,    7750.38,  -30.9,    1.0735, 2,    7741.04, -150.8,    1.0722, 3,    7714.65,   88.8,    1.0685
"BUSMVMAI126", 12.505, 1,    7750.39,  -30.9,    1.0735, 2,    7741.07, -150.8,    1.0722, 3,    7714.65,   88.8,    1.0685
"BUSMVMAI97", 12.505, 1,    7752.11,  -30.9,    1.0737, 2,    7740.78, -150.8,    1.0721, 3,     7715.4,   88.8,    1.0686
"BUSMVMAI711", 12.505, 1,    7752.13,  -30.9,    1.0737, 2,    7740.83, -150.8,    1.0721, 3,     7715.4,   88.8,    1.0686
"BUSMVMAI915", 12.505, 1,    7752.11,  -30.9,    1.0737, 0, 0, 0, 0, 0, 0, 0, 0
...
"BUSLVMAI1", 0.20785, 1,      128.3,   88.8,    1.0692, 2,    128.315,  -91.2,    1.0693, 0, 0, 0, 0
"BUSLVMAI2", 0.20785, 1,    128.198,   88.7,    1.0683, 2,    128.211,  -91.3,    1.0684, 0, 0, 0, 0
"BUSLVMAI3", 0.20785, 1,    128.282,   88.8,     1.069, 2,    128.298,  -91.2,    1.0691, 0, 0, 0, 0
"BUSLVMAI4", 0.20785, 1,    128.754,  -31.0,    1.0729, 2,    128.812,  149.0,    1.0734, 0, 0, 0, 0
"BUSLVMAI5", 0.20785, 1,    128.284, -150.9,     1.069, 2,    128.323,   29.1,    1.0694, 0, 0, 0, 0
"BUSLVMAI6", 0.20785, 1,    128.213,   88.7,    1.0684, 2,    128.229,  -91.3,    1.0686, 0, 0, 0, 0
"BUSLVMAI7", 0.20785, 1,    128.305,   88.8,    1.0692, 2,    128.319,  -91.2,    1.0693, 0, 0, 0, 0
"BUSLVMAI8", 0.20785, 1,    128.008,   88.7,    1.0667, 2,    128.024,  -91.3,    1.0669, 0, 0, 0, 0
"BUSLVMAI9", 0.20785, 1,    127.965,   88.5,    1.0664, 2,    127.978,  -91.5,    1.0665, 0, 0, 0, 0
"BUSLVMAI10", 0.20785, 1,    127.984,   88.5,    1.0665, 2,    127.997,  -91.5,    1.0666, 0, 0, 0, 0
"BUSLVMAI11", 0.20785, 1,    128.574, -150.8,    1.0715, 2,    128.588,   29.2,    1.0716, 0, 0, 0, 0
"BUSLVMAI12", 0.20785, 1,    128.549, -150.8,    1.0712, 2,    128.565,   29.2,    1.0714, 0, 0, 0, 0
"BUSLVMAI13", 0.20785, 1,    128.981,  -30.8,    1.0748, 2,    128.996,  149.2,     1.075, 0, 0, 0, 0
"BUSLVMAI14", 0.20785, 1,    128.997,  -30.9,     1.075, 2,    129.013,  149.1,    1.0751, 0, 0, 0, 0
"BUSLVMAI15", 0.20785, 1,     128.97,  -30.8,    1.0748, 2,    128.983,  149.2,    1.0749, 0, 0, 0, 0
"BUSLVMAI16", 0.20785, 1,    128.286,   88.8,    1.0691, 2,    128.304,  -91.2,    1.0692, 0, 0, 0, 0
"BUSLVMAI17", 0.20785, 1,    127.797,   88.5,     1.065, 2,    127.822,  -91.5,    1.0652, 0, 0, 0, 0
"BUSLVMAI18", 0.20785, 1,    128.242,   88.7,    1.0687, 2,    128.258,  -91.3,    1.0688, 0, 0, 0, 0
"BUSLVMAI19", 0.20785, 1,    128.253,   88.8,    1.0688, 2,    128.266,  -91.2,    1.0689, 0, 0, 0, 0
"BUSLVMAI20", 0.20785, 1,    128.367, -150.8,    1.0697, 2,     128.39,   29.2,    1.0699, 0, 0, 0, 0
"BUSLVMAI21", 0.20785, 1,      128.3,   88.8,    1.0692, 2,    128.316,  -91.2,    1.0693, 0, 0, 0, 0
"BUSLVMAI22", 0.20785, 1,    128.932,  -30.9,    1.0744, 2,    128.986,  149.1,    1.0749, 0, 0, 0, 0
"BUSLVMAI23", 0.20785, 1,    128.276,   88.8,     1.069, 2,    128.291,  -91.2,    1.0691, 0, 0, 0, 0
"BUSLVMAI24", 0.20785, 1,    128.278,   88.8,     1.069, 2,    128.294,  -91.2,    1.0691, 0, 0, 0, 0
"BUSLVMAI25", 0.20785, 1,    128.266,   88.8,    1.0689, 2,    128.282,  -91.2,     1.069, 0, 0, 0, 0
"BUSLVMAI26", 0.20785, 1,     128.53, -150.8,    1.0711, 2,    128.546,   29.2,    1.0712, 0, 0, 0, 0
"BUSLVMAI27", 0.20785, 1,    128.581, -150.8,    1.0715, 2,    128.598,   29.2,    1.0716, 0, 0, 0, 0
"BUSLVMAI28", 0.20785, 1,    128.242,   88.7,    1.0687, 2,    128.258,  -91.3,    1.0688, 0, 0, 0, 0
"BUSLVMAI29", 0.20785, 1,    128.037,   88.5,     1.067, 2,    128.053,  -91.5,    1.0671, 0, 0, 0, 0
"BUSLVMAI30", 0.20785, 1,    128.453, -150.8,    1.0704, 2,    128.467,   29.2,    1.0706, 0, 0, 0, 0
"BUSLVMAI31", 0.20785, 1,    128.284,   88.8,     1.069, 2,      128.3,  -91.2,    1.0692, 0, 0, 0, 0
"BUSLVMAI32", 0.20785, 1,    128.797,  -30.9,    1.0733, 2,    128.811,  149.1,    1.0734, 0, 0, 0, 0
"BUSLVMAI33", 0.20785, 1,    128.232,   88.7,    1.0686, 2,    128.245,  -91.3,    1.0687, 0, 0, 0, 0
"BUSLVMAI34", 0.20785, 1,    127.408,   88.6,    1.0617, 2,    127.493,  -91.4,    1.0624, 0, 0, 0, 0
"BUSLVMAI35", 0.20785, 1,    128.239,   88.8,    1.0687, 2,    128.253,  -91.2,    1.0688, 0, 0, 0, 0
"BUSLVMAI36", 0.20785, 1,    128.238,   88.8,    1.0686, 2,    128.252,  -91.2,    1.0688, 0, 0, 0, 0
"BUSLVMAI37", 0.20785, 1,    128.232,   88.8,    1.0686, 2,    128.248,  -91.2,    1.0687, 0, 0, 0, 0
"BUSLVMAI38", 0.20785, 1,    126.948, -151.2,    1.0579, 2,    126.966,   28.8,     1.058, 0, 0, 0, 0
"BUSLVMAI39", 0.20785, 1,     128.48, -150.9,    1.0707, 2,    128.493,   29.1,    1.0708, 0, 0, 0, 0
"BUSLVMAI40", 0.20785, 1,    128.051,   88.7,    1.0671, 2,    128.091,  -91.3,    1.0674, 0, 0, 0, 0
"BUSLVMAI41", 0.20785, 1,    128.794,  -30.9,    1.0733, 2,     128.81,  149.1,    1.0734, 0, 0, 0, 0
"BUSLVMAI42", 0.20785, 1,    128.826,  -30.9,    1.0736, 2,    128.842,  149.1,    1.0737, 0, 0, 0, 0
"BUSLVMAI43", 0.20785, 1,    128.813,  -30.9,    1.0734, 2,    128.829,  149.1,    1.0736, 0, 0, 0, 0
"BUSLVMAI44", 0.20785, 1,    128.144,   88.8,    1.0679, 2,    128.171,  -91.2,    1.0681, 0, 0, 0, 0
"BUSLVMAI45", 0.20785, 1,    128.115,   88.8,    1.0676, 2,    128.129,  -91.2,    1.0677, 0, 0, 0, 0
"BUSLVMAI46", 0.20785, 1,    128.194,   88.8,    1.0683, 2,     128.21,  -91.2,    1.0684, 0, 0, 0, 0
"BUSLVMAI47", 0.20785, 1,    128.241,   88.8,    1.0687, 2,    128.255,  -91.2,    1.0688, 0, 0, 0, 0
"BUSLVMAI48", 0.20785, 1,    127.998,   88.7,    1.0667, 2,    128.015,  -91.3,    1.0668, 0, 0, 0, 0
"BUSLVMAI49", 0.20785, 1,    128.805,  -30.9,    1.0734, 2,     128.82,  149.1,    1.0735, 0, 0, 0, 0
"BUSLVMAI50", 0.20785, 1,    127.821, -151.0,    1.0652, 2,     127.92,   29.0,     1.066, 0, 0, 0, 0
"BUSLVMAI51", 0.20785, 1,    128.431,  -31.0,    1.0703, 2,    128.447,  149.0,    1.0704, 0, 0, 0, 0
"BUSLVMAI52", 0.20785, 1,    128.247,   88.8,    1.0687, 2,     128.26,  -91.2,    1.0688, 0, 0, 0, 0
"BUSLVMAI53", 0.20785, 1,    128.233,   88.8,    1.0686, 2,    128.248,  -91.2,    1.0687, 0, 0, 0, 0
"BUSLVMAI54", 0.20785, 1,    127.896,   88.7,    1.0658, 2,    127.912,  -91.3,    1.0659, 0, 0, 0, 0
"BUSLVMAI55", 0.20785, 1,    128.824,  -30.9,    1.0735, 2,     128.84,  149.1,    1.0737, 0, 0, 0, 0
"BUSLVMAI56", 0.20785, 1,    128.022,   88.7,    1.0669, 2,    128.035,  -91.3,     1.067, 0, 0, 0, 0
"BUSLVMAI57", 0.20785, 1,    128.182,   88.8,    1.0682, 2,    128.197,  -91.2,    1.0683, 0, 0, 0, 0
"BUSLVMAI58", 0.20785, 1,    128.245,   88.8,    1.0687, 2,     128.26,  -91.2,    1.0688, 0, 0, 0, 0
"BUSLVMAI59", 0.20785, 1,    128.805,  -30.9,    1.0734, 2,     128.82,  149.1,    1.0735, 0, 0, 0, 0
"BUSLVMAI60", 0.20785, 1,    128.799,  -30.9,    1.0733, 2,    128.813,  149.1,    1.0734, 0, 0, 0, 0
"BUSLVMAI61", 0.20785, 1,    128.421,  -31.1,    1.0702, 2,    128.436,  148.9,    1.0703, 0, 0, 0, 0
"BUSLVMAI62", 0.20785, 1,    128.529, -150.8,    1.0711, 2,    128.543,   29.2,    1.0712, 0, 0, 0, 0
"BUSLVMAI63", 0.20785, 1,    128.601,  -31.0,    1.0717, 2,     128.62,  149.0,    1.0718, 0, 0, 0, 0
"BUSLVMAI64", 0.20785, 1,    128.531, -150.8,    1.0711, 2,    128.544,   29.2,    1.0712, 0, 0, 0, 0
"BUSLVMAI65", 0.20785, 1,    128.796,  -30.9,    1.0733, 2,     128.81,  149.1,    1.0734, 0, 0, 0, 0
"BUSLVMAI66", 0.20785, 1,    128.238,   88.8,    1.0687, 2,    128.252,  -91.2,    1.0688, 0, 0, 0, 0
"BUSLVMAI67", 0.20785, 1,    128.667,  -30.9,    1.0722, 2,    128.683,  149.1,    1.0724, 0, 0, 0, 0
"BUSLVMAI68", 0.20785, 1,    128.541,  -31.0,    1.0712, 2,    128.554,  149.0,    1.0713, 0, 0, 0, 0
"BUSLVMAI69", 0.20785, 1,    128.241,   88.8,    1.0687, 2,    128.255,  -91.2,    1.0688, 0, 0, 0, 0
"BUSLVMAI70", 0.20785, 1,    128.071,   88.7,    1.0673, 2,    128.093,  -91.3,    1.0674, 0, 0, 0, 0
"BUSLVMAI71", 0.20785, 1,    128.356,  -31.1,    1.0696, 2,     128.37,  148.9,    1.0698, 0, 0, 0, 0
"BUSLVMAI72", 0.20785, 1,    128.763,  -30.9,     1.073, 2,    128.777,  149.1,    1.0731, 0, 0, 0, 0
"BUSLVMAI73", 0.20785, 1,    128.707,  -30.9,    1.0726, 2,     128.72,  149.1,    1.0727, 0, 0, 0, 0
"BUSLVMAI74", 0.20785, 1,    128.804,  -30.9,    1.0734, 2,     128.82,  149.1,    1.0735, 0, 0, 0, 0
"BUSLVMAI75", 0.20785, 1,    128.396, -150.9,      1.07, 2,     128.41,   29.1,    1.0701, 0, 0, 0, 0
"BUSLVMAI76", 0.20785, 1,    128.239,   88.8,    1.0687, 2,    128.252,  -91.2,    1.0688, 0, 0, 0, 0
"BUSLVMAI77", 0.20785, 1,     128.58,  -31.0,    1.0715, 2,    128.594,  149.0,    1.0716, 0, 0, 0, 0
"BUSLVMAI78", 0.20785, 1,    128.784,  -30.9,    1.0732, 2,    128.797,  149.1,    1.0733, 0, 0, 0, 0
"BUSLVMAI79", 0.20785, 1,    128.188,   88.8,    1.0682, 2,    128.202,  -91.2,    1.0684, 0, 0, 0, 0
"BUSLVMAI80", 0.20785, 1,    127.708,   88.6,    1.0642, 2,    127.731,  -91.5,    1.0644, 0, 0, 0, 0
"BUSLVMAI81", 0.20785, 1,    128.238,   88.8,    1.0686, 2,    128.252,  -91.2,    1.0688, 0, 0, 0, 0
"BUSLVMAI82", 0.20785, 1,    128.194,   88.8,    1.0683, 2,     128.21,  -91.2,    1.0684, 0, 0, 0, 0
"BUSLVMAI83", 0.20785, 1,    128.612,  -31.0,    1.0718, 2,    128.632,  149.0,    1.0719, 0, 0, 0, 0
"BUSLVMAI84", 0.20785, 1,    128.077,   88.7,    1.0673, 2,    128.092,  -91.3,    1.0674, 0, 0, 0, 0
"BUSLVMAI85", 0.20785, 1,    128.585, -150.8,    1.0715, 2,    128.602,   29.2,    1.0717, 0, 0, 0, 0
"BUSLVMAI86", 0.20785, 1,    128.684,  -30.9,    1.0724, 2,    128.705,  149.1,    1.0725, 0, 0, 0, 0
"BUSLVMAI87", 0.20785, 1,    128.824,  -30.9,    1.0735, 2,    128.846,  149.1,    1.0737, 0, 0, 0, 0
"BUSLVMAI88", 0.20785, 1,    128.266,   88.8,    1.0689, 2,    128.279,  -91.2,     1.069, 0, 0, 0, 0
"BUSLVMAI89", 0.20785, 1,    128.239,   88.8,    1.0687, 2,    128.252,  -91.2,    1.0688, 0, 0, 0, 0
"BUSLVMAI90", 0.20785, 1,    128.011,   88.7,    1.0668, 2,    128.027,  -91.3,    1.0669, 0, 0, 0, 0
"BUSLVMAI91", 0.20785, 1,    128.241,   88.8,    1.0687, 2,    128.257,  -91.2,    1.0688, 0, 0, 0, 0
"BUSLVMAI92", 0.20785, 1,    128.645,  -30.9,     1.072, 2,    128.661,  149.0,    1.0722, 0, 0, 0, 0
"BUSLVMAI93", 0.20785, 1,    128.116,   88.8,    1.0676, 2,    128.132,  -91.2,    1.0678, 0, 0, 0, 0
"BUSLVMAI94", 0.20785, 1,    128.049,   88.7,    1.0671, 2,    128.063,  -91.3,    1.0672, 0, 0, 0, 0
"BUSLVMAI95", 0.20785, 1,    128.181,   88.8,    1.0682, 2,    128.197,  -91.2,    1.0683, 0, 0, 0, 0
"BUSLVMAI96", 0.20785, 1,    128.224,   88.8,    1.0685, 2,    128.239,  -91.2,    1.0687, 0, 0, 0, 0
"BUSLVMAI97", 0.20785, 1,    128.618, -150.8,    1.0718, 2,    128.634,   29.2,    1.0719, 0, 0, 0, 0
"BUSLVMAI98", 0.20785, 1,    128.618, -150.8,    1.0718, 2,    128.634,   29.2,    1.0719, 0, 0, 0, 0
"BUSLVMAI99", 0.20785, 1,     128.23,   88.8,    1.0686, 2,    128.244,  -91.2,    1.0687, 0, 0, 0, 0
"BUSLVMAI100", 0.20785, 1,    128.248,   88.8,    1.0687, 2,    128.263,  -91.2,    1.0689, 0, 0, 0, 0
"BUSLVMAI101", 0.20785, 1,    128.179,   88.8,    1.0682, 2,    128.195,  -91.2,    1.0683, 0, 0, 0, 0
"BUSLVMAI102", 0.20785, 1,    128.235,   88.8,    1.0686, 2,    128.251,  -91.2,    1.0688, 0, 0, 0, 0
"BUSLVMAI103", 0.20785, 1,    128.167,   88.8,    1.0681, 2,    128.183,  -91.2,    1.0682, 0, 0, 0, 0
"BUSLVMAI104", 0.20785, 1,    128.158,   88.8,     1.068, 2,    128.172,  -91.2,    1.0681, 0, 0, 0, 0
"BUSLVMAI105", 0.20785, 1,    128.103,   88.8,    1.0675, 2,    128.118,  -91.2,    1.0676, 0, 0, 0, 0
"BUSLVMAI106", 0.20785, 1,    128.783,  -30.9,    1.0732, 2,    128.797,  149.1,    1.0733, 0, 0, 0, 0
"BUSLVMAI107", 0.20785, 1,     128.24,   88.8,    1.0687, 2,    128.254,  -91.2,    1.0688, 0, 0, 0, 0
"BUSLVMAI108", 0.20785, 1,    128.193,   88.8,    1.0683, 2,    128.207,  -91.2,    1.0684, 0, 0, 0, 0
"BUSLVMAI109", 0.20785, 1,    128.427,  -31.0,    1.0702, 2,    128.478,  149.0,    1.0707, 0, 0, 0, 0
"BUSLVMAI110", 0.20785, 1,    128.568,  -31.0,    1.0714, 2,    128.584,  149.0,    1.0715, 0, 0, 0, 0
"BUSLVMAI111", 0.20785, 1,    128.649,  -30.9,    1.0721, 2,    128.665,  149.1,    1.0722, 0, 0, 0, 0
"BUSLVMAI112", 0.20785, 1,    128.727,  -30.9,    1.0727, 2,    128.743,  149.1,    1.0729, 0, 0, 0, 0
"BUSLVMAI113", 0.20785, 1,    128.584, -150.8,    1.0715, 2,      128.6,   29.2,    1.0717, 0, 0, 0, 0
"BUSLVMAI114", 0.20785, 1,    128.011,  -31.2,    1.0668, 2,    128.026,  148.8,    1.0669, 0, 0, 0, 0
"BUSLVMAI115", 0.20785, 1,    128.652,  -30.9,    1.0721, 2,    128.665,  149.1,    1.0722, 0, 0, 0, 0
"BUSLVMAI116", 0.20785, 1,    128.164,   88.8,     1.068, 2,    128.177,  -91.2,    1.0681, 0, 0, 0, 0
"BUSLVMAI117", 0.20785, 1,    128.455,  -31.0,    1.0705, 2,    128.477,  149.0,    1.0706, 0, 0, 0, 0
"BUSLVMAI118", 0.20785, 1,    128.485,  -31.0,    1.0707, 2,    128.501,  149.0,    1.0708, 0, 0, 0, 0
"BUSLVMAI119", 0.20785, 1,    128.035,   88.7,     1.067, 2,    128.049,  -91.3,    1.0671, 0, 0, 0, 0
"BUSLVMAI120", 0.20785, 1,     128.65,  -30.9,    1.0721, 2,    128.665,  149.1,    1.0722, 0, 0, 0, 0
"BUSLVMAI121", 0.20785, 1,    128.637, -150.8,     1.072, 2,    128.653,   29.2,    1.0721, 0, 0, 0, 0
"BUSLVMAI122", 0.20785, 1,    128.152,   88.8,    1.0679, 2,    128.168,  -91.2,    1.0681, 0, 0, 0, 0
"BUSLVMAI123", 0.20785, 1,    128.637, -150.8,     1.072, 2,    128.651,   29.2,    1.0721, 0, 0, 0, 0
"BUSLVMAI124", 0.20785, 1,    127.868,   88.7,    1.0656, 2,    127.907,  -91.3,    1.0659, 0, 0, 0, 0
"BUSLVMAI125", 0.20785, 1,     127.88,   88.7,    1.0657, 2,    127.896,  -91.3,    1.0658, 0, 0, 0, 0
"BUSLVMAI126", 0.20785, 1,    128.641, -150.8,     1.072, 2,    128.655,   29.2,    1.0721, 0, 0, 0, 0
"BUSLVMAI127", 0.20785, 1,    128.157,   88.8,     1.068, 2,    128.172,  -91.2,    1.0681, 0, 0, 0, 0
"BUSLVMAI128", 0.20785, 1,    128.097, -151.0,    1.0675, 2,    128.117,   29.0,    1.0676, 0, 0, 0, 0
"BUSLVMAI129", 0.20785, 1,    128.651,  -30.9,    1.0721, 2,    128.664,  149.1,    1.0722, 0, 0, 0, 0
"BUSLVMAI130", 0.20785, 1,    128.744,  -30.9,    1.0729, 2,     128.76,  149.1,     1.073, 0, 0, 0, 0
"BUSLVMAI131", 0.20785, 1,    128.257,  -31.1,    1.0688, 2,    128.285,  148.9,     1.069, 0, 0, 0, 0
"BUSLVMAI132", 0.20785, 1,     128.65,  -30.9,    1.0721, 2,    128.663,  149.1,    1.0722, 0, 0, 0, 0
"BUSLVMAI133", 0.20785, 1,    128.166,   88.8,    1.0681, 2,    128.184,  -91.2,    1.0682, 0, 0, 0, 0
"BUSLVMAI134", 0.20785, 1,    128.037,   88.7,     1.067, 2,    128.052,  -91.3,    1.0671, 0, 0, 0, 0
"BUSLVMAI135", 0.20785, 1,    128.144,   88.8,    1.0679, 2,     128.16,  -91.2,     1.068, 0, 0, 0, 0
"BUSLVMAI136", 0.20785, 1,     128.45,  -31.0,    1.0704, 2,    128.471,  149.0,    1.0706, 0, 0, 0, 0
"BUSLVMAI137", 0.20785, 1,     128.43, -150.9,    1.0703, 2,    128.443,   29.1,    1.0704, 0, 0, 0, 0
"BUSLVMAI138", 0.20785, 1,    128.501, -150.9,    1.0708, 2,    128.522,   29.1,     1.071, 0, 0, 0, 0
"BUSLVMAI139", 0.20785, 1,    128.429, -150.9,    1.0702, 2,    128.444,   29.1,    1.0704, 0, 0, 0, 0
"BUSLVMAI140", 0.20785, 1,    128.564,  -31.0,    1.0714, 2,     128.58,  149.0,    1.0715, 0, 0, 0, 0
"BUSLVMAI141", 0.20785, 1,    128.641, -150.8,     1.072, 2,    128.656,   29.2,    1.0721, 0, 0, 0, 0
"BUSLVMAI142", 0.20785, 1,    128.492, -150.9,    1.0708, 2,    128.506,   29.1,    1.0709, 0, 0, 0, 0
"BUSLVMAI143", 0.20785, 1,    128.596, -150.8,    1.0716, 2,    128.611,   29.2,    1.0718, 0, 0, 0, 0
"BUSLVMAI144", 0.20785, 1,    128.154,   88.8,     1.068, 2,     128.17,  -91.2,    1.0681, 0, 0, 0, 0
"BUSLVMAI145", 0.20785, 1,    128.714,  -30.9,    1.0726, 2,     128.73,  149.1,    1.0728, 0, 0, 0, 0
"BUSLVMAI146", 0.20785, 1,    128.634, -150.8,     1.072, 2,    128.648,   29.2,    1.0721, 0, 0, 0, 0
"BUSLVMAI147", 0.20785, 1,    128.264,  -31.1,    1.0689, 2,    128.278,  148.9,     1.069, 0, 0, 0, 0
"BUSLVMAI148", 0.20785, 1,    128.119,   88.8,    1.0677, 2,    128.135,  -91.2,    1.0678, 0, 0, 0, 0
"BUSLVMAI149", 0.20785, 1,    128.472, -150.9,    1.0706, 2,    128.485,   29.1,    1.0707, 0, 0, 0, 0
"BUSLVMAI150", 0.20785, 1,    128.358,  -31.1,    1.0696, 2,    128.379,  148.9,    1.0698, 0, 0, 0, 0
"BUSLVMAI151", 0.20785, 1,    128.229, -151.0,    1.0686, 2,    128.242,   29.0,    1.0687, 0, 0, 0, 0
"BUSLVMAI152", 0.20785, 1,    128.642,  -30.9,     1.072, 2,    128.657,  149.1,    1.0721, 0, 0, 0, 0
"BUSLVMAI153", 0.20785, 1,    127.816,   88.7,    1.0651, 2,    127.832,  -91.3,    1.0653, 0, 0, 0, 0
"BUSLVMAI154", 0.20785, 1,    128.159,   88.8,     1.068, 2,    128.176,  -91.2,    1.0681, 0, 0, 0, 0
"BUSLVMAI155", 0.20785, 1,    128.478,  -31.0,    1.0707, 2,    128.492,  149.0,    1.0708, 0, 0, 0, 0
"BUSLVMAI156", 0.20785, 1,    128.653,  -30.9,    1.0721, 2,    128.666,  149.1,    1.0722, 0, 0, 0, 0
"BUSLVMAI157", 0.20785, 1,    128.278,  -31.1,     1.069, 2,    128.294,  148.9,    1.0691, 0, 0, 0, 0
"BUSLVMAI158", 0.20785, 1,    128.603, -150.8,    1.0717, 2,    128.617,   29.2,    1.0718, 0, 0, 0, 0
"BUSLVMAI159", 0.20785, 1,    128.601, -150.8,    1.0717, 2,    128.614,   29.2,    1.0718, 0, 0, 0, 0
"BUSLVMAI160", 0.20785, 1,     128.51,  -31.0,    1.0709, 2,    128.526,  149.0,    1.0711, 0, 0, 0, 0
"BUSLVMAI161", 0.20785, 1,    128.519,  -31.0,     1.071, 2,    128.542,  149.0,    1.0712, 0, 0, 0, 0
"BUSLVMAI162", 0.20785, 1,    128.528,  -31.0,    1.0711, 2,    128.544,  149.0,    1.0712, 0, 0, 0, 0
"BUSLVMAI163", 0.20785, 1,    128.642,  -30.9,     1.072, 2,    128.657,  149.1,    1.0721, 0, 0, 0, 0
"BUSLVMAI164", 0.20785, 1,    128.768,  -30.9,    1.0731, 2,    128.781,  149.1,    1.0732, 0, 0, 0, 0
"BUSLVMAI165", 0.20785, 1,    128.347,  -31.0,    1.0696, 2,    128.381,  149.0,    1.0698, 0, 0, 0, 0
"BUSLVMAI166", 0.20785, 1,    128.513,  -31.0,    1.0709, 2,    128.537,  149.0,    1.0711, 0, 0, 0, 0
"BUSLVMAI167", 0.20785, 1,    127.999,   88.7,    1.0667, 2,    128.015,  -91.3,    1.0668, 0, 0, 0, 0
"BUSLVMAI168", 0.20785, 1,    128.087,   88.8,    1.0674, 2,    128.102,  -91.2,    1.0675, 0, 0, 0, 0
"BUSLVMAI169", 0.20785, 1,      127.9,  -31.1,    1.0658, 2,    127.918,  148.9,     1.066, 0, 0, 0, 0
"BUSLVMAI170", 0.20785, 1,    128.646,  -30.9,    1.0721, 2,     128.66,  149.1,    1.0722, 0, 0, 0, 0
"BUSLVMAI171", 0.20785, 1,    128.403,  -31.0,      1.07, 2,    128.445,  149.0,    1.0704, 0, 0, 0, 0
"BUSLVMAI172", 0.20785, 1,     127.92,   88.7,     1.066, 2,    127.934,  -91.3,    1.0661, 0, 0, 0, 0
"BUSLVMAI173", 0.20785, 1,    128.151,   88.8,    1.0679, 2,    128.167,  -91.2,    1.0681, 0, 0, 0, 0
"BUSLVMAI174", 0.20785, 1,    128.475,  -31.0,    1.0706, 2,    128.497,  149.0,    1.0708, 0, 0, 0, 0
"BUSLVMAI175", 0.20785, 1,    128.388,  -31.1,    1.0699, 2,    128.402,  148.9,      1.07, 0, 0, 0, 0
"BUSLVMAI176", 0.20785, 1,    128.099,   88.8,    1.0675, 2,    128.112,  -91.2,    1.0676, 0, 0, 0, 0
"BUSLVMAI177", 0.20785, 1,    128.132,   88.8,    1.0678, 2,    128.145,  -91.2,    1.0679, 0, 0, 0, 0
"BUSLVMAI178", 0.20785, 1,    128.588, -150.8,    1.0716, 2,    128.602,   29.2,    1.0717, 0, 0, 0, 0
"BUSLVMAI179", 0.20785, 1,    128.557, -150.8,    1.0713, 2,    128.571,   29.2,    1.0714, 0, 0, 0, 0
"BUSLVMAI180", 0.20785, 1,    128.653,  -30.9,    1.0721, 2,    128.666,  149.1,    1.0722, 0, 0, 0, 0
"BUSLVMAI181", 0.20785, 1,    128.645,  -30.9,     1.072, 2,     128.66,  149.1,    1.0722, 0, 0, 0, 0
"BUSLVMAI182", 0.20785, 1,    128.229,  -31.1,    1.0686, 2,    128.291,  148.9,    1.0691, 0, 0, 0, 0
"BUSLVMAI183", 0.20785, 1,    128.124,   88.8,    1.0677, 2,    128.138,  -91.2,    1.0678, 0, 0, 0, 0
"BUSLVMAI184", 0.20785, 1,     128.75,  -30.9,    1.0729, 2,    128.763,  149.1,     1.073, 0, 0, 0, 0
"BUSLVMAI185", 0.20785, 1,    128.465, -150.9,    1.0705, 2,    128.479,   29.1,    1.0707, 0, 0, 0, 0
"BUSLVMAI186", 0.20785, 1,    128.163,   88.8,     1.068, 2,    128.179,  -91.2,    1.0682, 0, 0, 0, 0
"BUSLVMAI187", 0.20785, 1,    128.123,   88.8,    1.0677, 2,    128.137,  -91.2,    1.0678, 0, 0, 0, 0
"BUSLVMAI188", 0.20785, 1,    128.608, -150.8,    1.0717, 2,    128.623,   29.2,    1.0719, 0, 0, 0, 0
"BUSLVMAI189", 0.20785, 1,    128.648,  -30.9,    1.0721, 2,    128.664,  149.1,    1.0722, 0, 0, 0, 0
"BUSLVMAI190", 0.20785, 1,    128.602, -150.8,    1.0717, 2,    128.619,   29.2,    1.0718, 0, 0, 0, 0
"BUSLVMAI191", 0.20785, 1,     128.16,   88.8,     1.068, 2,    128.176,  -91.2,    1.0681, 0, 0, 0, 0
"BUSLVMAI192", 0.20785, 1,     128.64,  -30.9,     1.072, 2,    128.656,  149.1,    1.0721, 0, 0, 0, 0
"BUSLVMAI193", 0.20785, 1,    128.645,  -30.9,     1.072, 2,    128.661,  149.1,    1.0722, 0, 0, 0, 0
"BUSLVMAI194", 0.20785, 1,    128.115,   88.8,    1.0676, 2,     128.13,  -91.2,    1.0678, 0, 0, 0, 0
"BUSLVMAI195", 0.20785, 1,    128.162,   88.8,     1.068, 2,    128.177,  -91.2,    1.0681, 0, 0, 0, 0
"BUSLVMAI196", 0.20785, 1,    128.582, -150.8,    1.0715, 2,    128.598,   29.2,    1.0717, 0, 0, 0, 0
"BUSLVMAI197", 0.20785, 1,    128.568, -150.8,    1.0714, 2,    128.582,   29.2,    1.0715, 0, 0, 0, 0
"BUSLVMAI198", 0.20785, 1,    128.583, -150.8,    1.0715, 2,    128.598,   29.2,    1.0717, 0, 0, 0, 0
"BUSLVMAI199", 0.20785, 1,    128.583, -150.8,    1.0715, 2,    128.599,   29.2,    1.0717, 0, 0, 0, 0
"BUSLVMAI200", 0.20785, 1,    128.638,  -30.9,     1.072, 2,    128.654,  149.1,    1.0721, 0, 0, 0, 0
...
